@<TRIPOS>MOLECULE
4725
 33 34 0 0 0
SMALL
GASTEIGER

@<TRIPOS>ATOM
      1 O           5.0298    1.5832    1.0057 O.3     1  LIG1       -0.3947
      2 O           4.4367   -1.4351   -1.7837 O.3     1  LIG1       -0.3947
      3 O          -4.5678   -1.0452   -0.4437 O.2     1  LIG1       -0.2633
      4 N          -0.2100   -0.8482    0.6788 N.ar    1  LIG1       -0.3163
      5 N          -1.2712    1.2598    0.1065 N.ar    1  LIG1       -0.3122
      6 N          -1.9778   -2.1762    0.3969 N.ar    1  LIG1       -0.2286
      7 N          -3.5917    1.0567   -0.4774 N.ar    1  LIG1       -0.1756
      8 N          -2.4863    3.1384   -0.4736 N.pl3   1  LIG1       -0.3289
      9 C           3.5754   -0.1212    0.0756 C.3     1  LIG1        0.0070
     10 C           2.0959   -0.4598   -0.2284 C.3     1  LIG1       -0.0279
     11 C           1.1579   -0.4454    0.9847 C.3     1  LIG1        0.0264
     12 C           3.6688    1.2593    0.7491 C.3     1  LIG1        0.0492
     13 C           4.4660   -0.1519   -1.1745 C.3     1  LIG1        0.0492
     14 C          -1.2301   -0.0608    0.3010 C.ar    1  LIG1        0.1462
     15 C          -2.3093   -0.8778    0.1297 C.ar    1  LIG1        0.1720
     16 C          -0.6981   -2.1244    0.7266 C.ar    1  LIG1        0.0983
     17 C          -3.5861   -0.3302   -0.2831 C.ar    1  LIG1        0.3021
     18 C          -2.5021    1.7789   -0.2902 C.ar    1  LIG1        0.1952
     19 H           3.9591   -0.8816    0.7690 H       1  LIG1        0.0346
     20 H           2.0490   -1.4531   -0.6932 H       1  LIG1        0.0286
     21 H           1.7131    0.2410   -0.9824 H       1  LIG1        0.0286
     22 H           1.0942    0.5509    1.4335 H       1  LIG1        0.0493
     23 H           1.5259   -1.1297    1.7583 H       1  LIG1        0.0493
     24 H           3.2503    2.0414    0.1074 H       1  LIG1        0.0560
     25 H           3.1449    1.2839    1.7084 H       1  LIG1        0.0560
     26 H           5.5086    0.0670   -0.9237 H       1  LIG1        0.0560
     27 H           4.1246    0.5846   -1.9101 H       1  LIG1        0.0560
     28 H          -0.0874   -2.9731    1.0032 H       1  LIG1        0.1029
     29 H          -0.4697    1.8701    0.2286 H       1  LIG1        0.1700
     30 H           5.3892    0.8934    1.5894 H       1  LIG1        0.2094
     31 H           5.0089   -1.3922   -2.5688 H       1  LIG1        0.2094
     32 H          -1.6430    3.6824   -0.3273 H       1  LIG1        0.1451
     33 H          -3.3198    3.6386   -0.7629 H       1  LIG1        0.1451
@<TRIPOS>BOND
     1     1    12    1
     2     1    30    1
     3     2    13    1
     4     2    31    1
     5     3    17    2
     6     4    11    1
     7     4    14   ar
     8     4    16   ar
     9     5    14   ar
    10     5    18   ar
    11     5    29    1
    12     6    15   ar
    13     6    16   ar
    14     7    17   ar
    15     7    18   ar
    16     8    18    1
    17     8    32    1
    18     8    33    1
    19     9    10    1
    20     9    12    1
    21     9    13    1
    22     9    19    1
    23    10    11    1
    24    10    20    1
    25    10    21    1
    26    11    22    1
    27    11    23    1
    28    12    24    1
    29    12    25    1
    30    13    26    1
    31    13    27    1
    32    14    15   ar
    33    15    17   ar
    34    16    28    1
