@<TRIPOS>MOLECULE
90476173
 56 59 0 0 0
SMALL
GASTEIGER

@<TRIPOS>ATOM
      1 O          -4.4876   -0.2362   -1.0391 O.3     1  LIG1       -0.3804
      2 O           0.2729    0.5664   -2.6269 O.3     1  LIG1       -0.3915
      3 O          -3.4323    0.5360    2.1210 O.2     1  LIG1       -0.2919
      4 O          -4.5849    2.8773    1.4819 O.3     1  LIG1       -0.3874
      5 O           5.9826    1.1686    1.4689 O.2     1  LIG1       -0.2927
      6 C          -2.0279   -0.3283   -0.7323 C.3     1  LIG1        0.0091
      7 C          -1.2044   -1.0305    0.3646 C.3     1  LIG1       -0.0292
      8 C           0.2714   -1.2303   -0.0121 C.3     1  LIG1       -0.0314
      9 C           0.9169    0.1687   -0.2811 C.3     1  LIG1       -0.0028
     10 C          -3.4421   -0.3698   -0.0901 C.3     1  LIG1        0.1315
     11 C          -1.4189    1.0690   -0.9685 C.3     1  LIG1       -0.0179
     12 C           2.4722    0.0850   -0.5683 C.3     1  LIG1       -0.0049
     13 C           0.0914    1.0233   -1.2942 C.3     1  LIG1        0.0597
     14 C          -2.0502   -2.2525    0.7130 C.3     1  LIG1       -0.0463
     15 C          -3.5059   -1.7576    0.5896 C.3     1  LIG1       -0.0162
     16 C           1.0163   -1.9543    1.1205 C.3     1  LIG1       -0.0459
     17 C          -2.0722   -1.1153   -2.0743 C.3     1  LIG1       -0.0562
     18 C           3.1415   -0.7607    0.5236 C.2     1  LIG1       -0.0600
     19 C           2.5015   -2.0941    0.8233 C.3     1  LIG1       -0.0305
     20 C           3.0447    1.5323   -0.5459 C.3     1  LIG1       -0.0366
     21 C           2.8161   -0.5698   -1.9253 C.3     1  LIG1       -0.0555
     22 C          -3.7256    0.6956    0.9371 C.2     1  LIG1        0.1902
     23 C           4.5580    1.5859   -0.4102 C.3     1  LIG1        0.0107
     24 C           4.2566   -0.3989    1.1798 C.2     1  LIG1       -0.0194
     25 C           4.9965    0.8315    0.8170 C.2     1  LIG1        0.1561
     26 C          -4.3864    1.9589    0.4280 C.3     1  LIG1        0.1052
     27 H          -1.2020   -0.3939    1.2632 H       1  LIG1        0.0310
     28 H           0.3452   -1.8519   -0.9103 H       1  LIG1        0.0307
     29 H           0.8223    0.7109    0.6753 H       1  LIG1        0.0337
     30 H          -1.5263    1.6811   -0.0653 H       1  LIG1        0.0297
     31 H          -1.9615    1.5793   -1.7733 H       1  LIG1        0.0297
     32 H           0.4606    2.0547   -1.2685 H       1  LIG1        0.0596
     33 H          -1.8442   -2.6175    1.7244 H       1  LIG1        0.0269
     34 H          -1.8664   -3.0796    0.0182 H       1  LIG1        0.0269
     35 H          -4.0824   -2.4686   -0.0151 H       1  LIG1        0.0297
     36 H          -3.9887   -1.7424    1.5730 H       1  LIG1        0.0297
     37 H           0.5934   -2.9549    1.2686 H       1  LIG1        0.0271
     38 H           0.8829   -1.4117    2.0657 H       1  LIG1        0.0271
     39 H          -2.6448   -2.0455   -1.9943 H       1  LIG1        0.0236
     40 H          -1.0843   -1.4004   -2.4403 H       1  LIG1        0.0236
     41 H          -2.5479   -0.5162   -2.8594 H       1  LIG1        0.0236
     42 H           2.6435   -2.7609   -0.0360 H       1  LIG1        0.0310
     43 H           2.9859   -2.5863    1.6757 H       1  LIG1        0.0310
     44 H           2.7548    2.0768   -1.4527 H       1  LIG1        0.0278
     45 H           2.6106    2.0850    0.2992 H       1  LIG1        0.0278
     46 H           2.6366    0.1091   -2.7647 H       1  LIG1        0.0238
     47 H           2.2386   -1.4821   -2.1035 H       1  LIG1        0.0238
     48 H           3.8757   -0.8485   -1.9804 H       1  LIG1        0.0238
     49 H          -4.2634    0.4890   -1.6467 H       1  LIG1        0.2108
     50 H           5.0612    1.1612   -1.2846 H       1  LIG1        0.0345
     51 H           4.8732    2.6302   -0.3083 H       1  LIG1        0.0345
     52 H          -0.2190    1.1639   -3.2153 H       1  LIG1        0.2098
     53 H           4.6940   -1.0204    1.9540 H       1  LIG1        0.0652
     54 H          -5.3730    1.7222    0.0209 H       1  LIG1        0.0637
     55 H          -3.7669    2.4347   -0.3342 H       1  LIG1        0.0637
     56 H          -5.0197    3.6607    1.1041 H       1  LIG1        0.2100
@<TRIPOS>BOND
     1     1    10    1
     2     1    49    1
     3     2    13    1
     4     2    52    1
     5     3    22    2
     6     4    26    1
     7     4    56    1
     8     5    25    2
     9     6     7    1
    10     6    10    1
    11     6    11    1
    12     6    17    1
    13     7     8    1
    14     7    14    1
    15     7    27    1
    16     8     9    1
    17     8    16    1
    18     8    28    1
    19     9    12    1
    20     9    13    1
    21     9    29    1
    22    10    15    1
    23    10    22    1
    24    11    13    1
    25    11    30    1
    26    11    31    1
    27    12    18    1
    28    12    20    1
    29    12    21    1
    30    13    32    1
    31    14    15    1
    32    14    33    1
    33    14    34    1
    34    15    35    1
    35    15    36    1
    36    16    19    1
    37    16    37    1
    38    16    38    1
    39    17    39    1
    40    17    40    1
    41    17    41    1
    42    18    19    1
    43    18    24    2
    44    19    42    1
    45    19    43    1
    46    20    23    1
    47    20    44    1
    48    20    45    1
    49    21    46    1
    50    21    47    1
    51    21    48    1
    52    22    26    1
    53    23    25    1
    54    23    50    1
    55    23    51    1
    56    24    25    1
    57    24    53    1
    58    26    54    1
    59    26    55    1
