@<TRIPOS>MOLECULE
681
 22 22 0 0 0
SMALL
GASTEIGER

@<TRIPOS>ATOM
      1 O          -2.2392    1.9626    0.0548 O.3     1  LIG1       -0.5033
      2 O          -3.3557   -0.5612    0.3868 O.3     1  LIG1       -0.5033
      3 N           4.4081    0.2624    0.3445 N.3     1  LIG1       -0.3297
      4 C           2.1628   -0.0212   -0.6613 C.3     1  LIG1       -0.0152
      5 C           0.7040   -0.1603   -0.3850 C.ar    1  LIG1       -0.0425
      6 C           2.9862    0.1008    0.6289 C.3     1  LIG1       -0.0029
      7 C          -0.0999    0.9759   -0.2919 C.ar    1  LIG1       -0.0133
      8 C           0.1434   -1.4267   -0.2187 C.ar    1  LIG1       -0.0549
      9 C          -1.4642    0.8456   -0.0326 C.ar    1  LIG1        0.1585
     10 C          -1.2209   -1.5570    0.0407 C.ar    1  LIG1       -0.0163
     11 C          -2.0247   -0.4208    0.1336 C.ar    1  LIG1        0.1582
     12 H           2.5111   -0.8817   -1.2481 H       1  LIG1        0.0325
     13 H           2.3332    0.8564   -1.2993 H       1  LIG1        0.0325
     14 H           2.8490   -0.7888    1.2541 H       1  LIG1        0.0425
     15 H           2.6457    0.9593    1.2192 H       1  LIG1        0.0425
     16 H           0.3315    1.9659   -0.4187 H       1  LIG1        0.0658
     17 H           0.7594   -2.3195   -0.2869 H       1  LIG1        0.0621
     18 H          -1.6445   -2.5496    0.1686 H       1  LIG1        0.0655
     19 H           4.5468    1.0868   -0.2388 H       1  LIG1        0.1182
     20 H           4.7362   -0.5285   -0.2089 H       1  LIG1        0.1182
     21 H          -3.1541    1.6866    0.2377 H       1  LIG1        0.2923
     22 H          -3.5639   -1.5074    0.4721 H       1  LIG1        0.2923
@<TRIPOS>BOND
     1     1     9    1
     2     1    21    1
     3     2    11    1
     4     2    22    1
     5     3     6    1
     6     3    19    1
     7     3    20    1
     8     4     5    1
     9     4     6    1
    10     4    12    1
    11     4    13    1
    12     5     7   ar
    13     5     8   ar
    14     6    14    1
    15     6    15    1
    16     7     9   ar
    17     7    16    1
    18     8    10   ar
    19     8    17    1
    20     9    11   ar
    21    10    11   ar
    22    10    18    1
